REMARK  32 active torsions:
REMARK  status: ('A' for Active; 'I' for Inactive)
REMARK    1  A    between atoms: O5'_2  and  C5'_3 
REMARK    2  A    between atoms: C5'_3  and  C4'_4 
REMARK    3  A    between atoms: C1'_6  and  N9_7 
REMARK    4  A    between atoms: C2_15  and  N2_16 
REMARK    5  A    between atoms: C3'_21  and  O3'_23 
REMARK    6  A    between atoms: O3'_23  and  P_24 
REMARK    7  A    between atoms: P_24  and  O5'_27 
REMARK    8  A    between atoms: O5'_27  and  C5'_28 
REMARK    9  A    between atoms: C5'_28  and  C4'_29 
REMARK   10  A    between atoms: C1'_31  and  N9_32 
REMARK   11  A    between atoms: C6_36  and  N6_37 
REMARK   12  A    between atoms: C3'_44  and  O3'_46 
REMARK   13  A    between atoms: O3'_46  and  P_47 
REMARK   14  A    between atoms: P_47  and  O5'_50 
REMARK   15  A    between atoms: O5'_50  and  C5'_51 
REMARK   16  A    between atoms: C5'_51  and  C4'_52 
REMARK   17  A    between atoms: C1'_54  and  N9_55 
REMARK   18  A    between atoms: C2_63  and  N2_64 
REMARK   19  A    between atoms: C3'_69  and  O3'_71 
REMARK   20  A    between atoms: O3'_71  and  P_72 
REMARK   21  A    between atoms: P_72  and  O5'_75 
REMARK   22  A    between atoms: O5'_75  and  C5'_76 
REMARK   23  A    between atoms: C5'_76  and  C4'_77 
REMARK   24  A    between atoms: C1'_79  and  N9_80 
REMARK   25  A    between atoms: C6_84  and  N6_85 
REMARK   26  A    between atoms: C3'_92  and  O3'_94 
REMARK   27  A    between atoms: O3'_94  and  P_95 
REMARK   28  A    between atoms: P_95  and  O5'_98 
REMARK   29  A    between atoms: O5'_98  and  C5'_99 
REMARK   30  A    between atoms: C5'_99  and  C4'_100 
REMARK   31  A    between atoms: C1'_102  and  N1_103 
REMARK   32  A    between atoms: C3'_113  and  O3'_115 
ROOT
ATOM      1  C4'  DG     3      17.100  -3.809 -15.633  1.00  0.00     0.178 C 
ATOM      2  O4'  DG     3      17.478  -4.571 -16.778  1.00  0.00    -0.356 OA
ATOM      3  C1'  DG     3      16.607  -4.268 -17.852  1.00  0.00     0.233 C 
ATOM      4  C3'  DG     3      15.701  -3.213 -15.882  1.00  0.00     0.169 C 
ATOM      5  C2'  DG     3      15.287  -3.840 -17.216  1.00  0.00     0.089 C 
ENDROOT
BRANCH   1   6
ATOM      6  C5'  DG     3      17.116  -4.697 -14.378  1.00  0.00     0.216 C 
BRANCH   6   7
ATOM      7  O5'  DG     3      16.032  -4.377 -13.515  1.00  0.00    -0.287 OA
BRANCH   7   8
ATOM      8  P    DG     3      15.961  -4.880 -11.975  1.00  0.00     0.408 P 
ATOM      9  OP1  DG     3      16.479  -3.769 -11.129  1.00  0.00    -0.624 OA
ATOM     10  OP2  DG     3      14.603  -5.418 -11.681  1.00  0.00    -0.624 OA
BRANCH   8  11
ATOM     11  O3'  DA     2      17.053  -6.078 -11.905  1.00  0.00    -0.282 OA
BRANCH  11  12
ATOM     12  C3'  DA     2      16.725  -7.457 -12.074  1.00  0.00     0.169 C 
ATOM     13  C4'  DA     2      17.908  -8.155 -12.766  1.00  0.00     0.178 C 
ATOM     14  O4'  DA     2      17.629  -8.192 -14.165  1.00  0.00    -0.356 OA
ATOM     15  C1'  DA     2      16.348  -7.633 -14.406  1.00  0.00     0.233 C 
ATOM     16  C2'  DA     2      15.594  -7.686 -13.078  1.00  0.00     0.089 C 
BRANCH  13  17
ATOM     17  C5'  DA     2      18.131  -9.573 -12.217  1.00  0.00     0.216 C 
BRANCH  17  18
ATOM     18  O5'  DA     2      18.011 -10.524 -13.265  1.00  0.00    -0.287 OA
BRANCH  18  19
ATOM     19  P    DA     2      17.220 -11.923 -13.081  1.00  0.00     0.408 P 
ATOM     20  OP1  DA     2      17.411 -12.377 -11.676  1.00  0.00    -0.624 OA
ATOM     21  OP2  DA     2      15.833 -11.802 -13.610  1.00  0.00    -0.624 OA
BRANCH  19  22
ATOM     22  O3' DG5     1      18.078 -12.917 -14.035  1.00  0.00    -0.282 OA
BRANCH  22  23
ATOM     23  C3' DG5     1      18.400 -12.666 -15.412  1.00  0.00     0.169 C 
ATOM     24  C4' DG5     1      17.558 -11.480 -15.921  1.00  0.00     0.177 C 
ATOM     25  O4' DG5     1      16.462 -11.992 -16.678  1.00  0.00    -0.356 OA
ATOM     26  C1' DG5     1      16.672 -13.367 -16.971  1.00  0.00     0.233 C 
ATOM     27  C2' DG5     1      18.064 -13.745 -16.455  1.00  0.00     0.089 C 
BRANCH  24  28
ATOM     28  C5' DG5     1      18.370 -10.455 -16.744  1.00  0.00     0.198 C 
BRANCH  28  29
ATOM     29  O5' DG5     1      19.136  -9.538 -15.959  1.00  0.00    -0.398 OA
ATOM     30 'HO5 DG5     1      18.829  -9.558 -15.026  1.00  0.00     0.209 HD
ENDBRANCH  28  29
ENDBRANCH  24  28
BRANCH  26  31
ATOM     31  N9  DG5     1      16.478 -13.604 -18.428  1.00  0.00    -0.296 N 
ATOM     32  C4  DG5     1      15.911 -12.716 -19.321  1.00  0.00     0.186 A 
ATOM     33  N3  DG5     1      15.410 -11.472 -19.039  1.00  0.00    -0.044 NA
ATOM     34  C5  DG5     1      15.973 -13.320 -20.562  1.00  0.00     0.173 A 
ATOM     35  C2  DG5     1      14.960 -10.837 -20.118  1.00  0.00     0.703 A 
ATOM     36  N1  DG5     1      14.976 -11.340 -21.379  1.00  0.00    -0.152 N 
ATOM     37  H1  DG5     1      14.621 -10.786 -22.137  1.00  0.00     0.187 HD
ATOM     38  C6  DG5     1      15.478 -12.587 -21.700  1.00  0.00     0.292 A 
ATOM     39  O6  DG5     1      15.452 -12.914 -22.889  1.00  0.00    -0.265 OA
ATOM     40  N7  DG5     1      16.558 -14.591 -20.460  1.00  0.00    -0.234 NA
ATOM     41  C8  DG5     1      16.830 -14.700 -19.185  1.00  0.00     0.214 A 
BRANCH  35  42
ATOM     42  N2  DG5     1      14.485  -9.629 -19.953  1.00  0.00    -0.233 N 
ATOM     43  H22 DG5     1      15.150  -8.887 -19.795  1.00  0.00     0.174 HD
ATOM     44  H21 DG5     1      13.496  -9.443 -19.970  1.00  0.00     0.174 HD
ENDBRANCH  35  42
ENDBRANCH  26  31
ENDBRANCH  22  23
ENDBRANCH  19  22
ENDBRANCH  18  19
ENDBRANCH  17  18
ENDBRANCH  13  17
BRANCH  15  45
ATOM     45  N9   DA     2      15.694  -8.380 -15.504  1.00  0.00    -0.296 N 
ATOM     46  C4   DA     2      14.702  -9.323 -15.358  1.00  0.00     0.167 A 
ATOM     47  N3   DA     2      14.190  -9.806 -14.188  1.00  0.00    -0.222 NA
ATOM     48  C5   DA     2      14.313  -9.657 -16.629  1.00  0.00     0.149 A 
ATOM     49  C2   DA     2      13.210 -10.679 -14.392  1.00  0.00     0.237 A 
ATOM     50  N1   DA     2      12.711 -11.083 -15.552  1.00  0.00    -0.222 NA
ATOM     51  C6   DA     2      13.245 -10.589 -16.670  1.00  0.00     0.155 A 
ATOM     52  N7   DA     2      15.072  -8.972 -17.593  1.00  0.00    -0.236 NA
ATOM     53  C8   DA     2      15.881  -8.247 -16.861  1.00  0.00     0.214 A 
BRANCH  51  54
ATOM     54  N6   DA     2      12.668 -11.047 -17.765  1.00  0.00    -0.382 N 
ATOM     55  H62  DA     2      11.660 -11.103 -17.815  1.00  0.00     0.157 HD
ATOM     56  H61  DA     2      13.257 -11.356 -18.521  1.00  0.00     0.157 HD
ENDBRANCH  51  54
ENDBRANCH  15  45
ENDBRANCH  11  12
ENDBRANCH   8  11
ENDBRANCH   7   8
ENDBRANCH   6   7
ENDBRANCH   1   6
BRANCH   4  57
ATOM     57  O3'  DG     3      15.791  -1.788 -15.903  1.00  0.00    -0.282 OA
BRANCH  57  58
ATOM     58  P    DA     4      14.541  -0.817 -16.282  1.00  0.00     0.408 P 
ATOM     59  OP1  DA     4      13.923  -0.357 -15.006  1.00  0.00    -0.624 OA
ATOM     60  OP2  DA     4      13.673  -1.507 -17.278  1.00  0.00    -0.624 OA
BRANCH  58  61
ATOM     61  O5'  DA     4      15.236   0.458 -17.004  1.00  0.00    -0.287 OA
BRANCH  61  62
ATOM     62  C5'  DA     4      16.650   0.516 -17.192  1.00  0.00     0.216 C 
BRANCH  62  63
ATOM     63  C4'  DA     4      17.205  -0.680 -17.984  1.00  0.00     0.178 C 
ATOM     64  O4'  DA     4      17.039  -0.475 -19.380  1.00  0.00    -0.356 OA
ATOM     65  C1'  DA     4      18.063  -1.162 -20.076  1.00  0.00     0.233 C 
ATOM     66  C2'  DA     4      19.164  -1.508 -19.070  1.00  0.00     0.089 C 
ATOM     67  C3'  DA     4      18.697  -0.937 -17.727  1.00  0.00     0.169 C 
BRANCH  65  68
ATOM     68  N9   DA     4      18.548  -0.295 -21.174  1.00  0.00    -0.296 N 
ATOM     69  C8   DA     4      18.528   1.077 -21.254  1.00  0.00     0.214 A 
ATOM     70  N7   DA     4      18.948   1.558 -22.399  1.00  0.00    -0.236 NA
ATOM     71  C5   DA     4      19.323   0.401 -23.103  1.00  0.00     0.149 A 
ATOM     72  C6   DA     4      19.878   0.133 -24.381  1.00  0.00     0.155 A 
ATOM     73  C4   DA     4      19.107  -0.727 -22.353  1.00  0.00     0.167 A 
ATOM     74  N1   DA     4      20.166  -1.110 -24.767  1.00  0.00    -0.222 NA
ATOM     75  C2   DA     4      19.912  -2.101 -23.923  1.00  0.00     0.237 A 
ATOM     76  N3   DA     4      19.383  -2.017 -22.707  1.00  0.00    -0.222 NA
BRANCH  72  77
ATOM     77  N6   DA     4      20.161   1.038 -25.301  1.00  0.00    -0.382 N 
ATOM     78  H62  DA     4      20.298   0.753 -26.259  1.00  0.00     0.157 HD
ATOM     79  H61  DA     4      20.229   2.003 -25.016  1.00  0.00     0.157 HD
ENDBRANCH  72  77
ENDBRANCH  65  68
BRANCH  67  80
ATOM     80  O3'  DA     4      18.880  -1.826 -16.620  1.00  0.00    -0.282 OA
BRANCH  80  81
ATOM     81  P   DT3     5      20.110  -1.682 -15.566  1.00  0.00     0.408 P 
ATOM     82  OP2 DT3     5      21.316  -1.199 -16.294  1.00  0.00    -0.624 OA
ATOM     83  OP1 DT3     5      19.613  -0.889 -14.407  1.00  0.00    -0.624 OA
BRANCH  81  84
ATOM     84  O5' DT3     5      20.370  -3.196 -15.043  1.00  0.00    -0.287 OA
BRANCH  84  85
ATOM     85  C5' DT3     5      21.606  -3.863 -15.270  1.00  0.00     0.216 C 
BRANCH  85  86
ATOM     86  C4' DT3     5      21.508  -4.890 -16.417  1.00  0.00     0.177 C 
ATOM     87  C3' DT3     5      22.883  -5.531 -16.687  1.00  0.00     0.153 C 
ATOM     88  C2' DT3     5      23.437  -4.619 -17.778  1.00  0.00     0.088 C 
ATOM     89  C1' DT3     5      22.166  -4.275 -18.560  1.00  0.00     0.235 C 
ATOM     90  O4' DT3     5      21.095  -4.254 -17.628  1.00  0.00    -0.356 OA
BRANCH  87  91
ATOM     91  O3' DT3     5      22.760  -6.872 -17.168  1.00  0.00    -0.393 OA
ATOM     92 'HO3 DT3     5      22.349  -6.871 -18.059  1.00  0.00     0.210 HD
ENDBRANCH  87  91
BRANCH  89  93
ATOM     93  N1  DT3     5      22.238  -2.981 -19.298  1.00  0.00    -0.282 N 
ATOM     94  C6  DT3     5      22.845  -1.877 -18.729  1.00  0.00     0.110 A 
ATOM     95  C5  DT3     5      22.948  -0.702 -19.407  1.00  0.00     0.022 A 
ATOM     96  C7  DT3     5      23.612   0.487 -18.734  1.00  0.00     0.056 C 
ATOM     97  C4  DT3     5      22.422  -0.581 -20.768  1.00  0.00     0.256 A 
ATOM     98  O4  DT3     5      22.465   0.417 -21.487  1.00  0.00    -0.267 OA
ATOM     99  N3  DT3     5      21.825  -1.721 -21.261  1.00  0.00    -0.275 N 
ATOM    100  C2  DT3     5      21.709  -2.921 -20.597  1.00  0.00     0.331 A 
ATOM    101  H3  DT3     5      21.463  -1.682 -22.198  1.00  0.00     0.173 HD
ATOM    102  O2  DT3     5      21.171  -3.873 -21.166  1.00  0.00    -0.246 OA
ENDBRANCH  89  93
ENDBRANCH  85  86
ENDBRANCH  84  85
ENDBRANCH  81  84
ENDBRANCH  80  81
ENDBRANCH  67  80
ENDBRANCH  62  63
ENDBRANCH  61  62
ENDBRANCH  58  61
ENDBRANCH  57  58
ENDBRANCH   4  57
BRANCH   3 103
ATOM    103  N9   DG     3      16.461  -5.454 -18.732  1.00  0.00    -0.296 N 
ATOM    104  C4   DG     3      17.352  -6.502 -18.849  1.00  0.00     0.186 A 
ATOM    105  C5   DG     3      16.831  -7.344 -19.810  1.00  0.00     0.173 A 
ATOM    106  N3   DG     3      18.517  -6.672 -18.152  1.00  0.00    -0.044 NA
ATOM    107  C6   DG     3      17.571  -8.536 -20.142  1.00  0.00     0.292 A 
ATOM    108  N7   DG     3      15.619  -6.840 -20.303  1.00  0.00    -0.234 NA
ATOM    109  O6   DG     3      17.298  -9.421 -20.956  1.00  0.00    -0.265 OA
ATOM    110  N1   DG     3      18.744  -8.676 -19.425  1.00  0.00    -0.152 N 
ATOM    111  H1   DG     3      19.286  -9.502 -19.598  1.00  0.00     0.187 HD
ATOM    112  C2   DG     3      19.162  -7.787 -18.485  1.00  0.00     0.703 A 
ATOM    113  C8   DG     3      15.461  -5.726 -19.636  1.00  0.00     0.214 A 
BRANCH 112 114
ATOM    114  N2   DG     3      20.277  -8.048 -17.852  1.00  0.00    -0.233 N 
ATOM    115  H22  DG     3      20.216  -8.604 -17.014  1.00  0.00     0.174 HD
ATOM    116  H21  DG     3      21.166  -7.710 -18.185  1.00  0.00     0.174 HD
ENDBRANCH 112 114
ENDBRANCH   3 103
TORSDOF 32
